Example Files/123BusSolar/ieee123_VLN_Node.Txt

LINE-GROUND and LINE-LINE VOLTAGES BY BUS & NODE

Bus      Node    VLN (kV)   Angle      pu     Base kV    Node-Node   VLL (kV)  Angle      pu

150 .... 1       2.4018 /_    0.0   0.99999     4.160        1-2       4.16 /_   30.0   0.99999
   -     2       2.4018 /_ -120.0   0.99999     4.160        2-3       4.16 /_  -90.0         1
   -     3       2.4018 /_  120.0   0.99999     4.160        3-1       4.16 /_  150.0   0.99999
150R ... 1       2.4768 /_    0.0    1.0312     4.160        1-2     4.2899 /_   30.0    1.0312
   -     2       2.4768 /_ -120.0    1.0312     4.160        2-3       4.29 /_  -90.0    1.0312
   -     3       2.4768 /_  120.0    1.0312     4.160        3-1       4.29 /_  150.0    1.0312
149 .... 1       2.4768 /_    0.0    1.0312     4.160        1-2     4.2899 /_   30.0    1.0312
   -     2       2.4768 /_ -120.0    1.0312     4.160        2-3       4.29 /_  -90.0    1.0312
   -     3       2.4768 /_  120.0    1.0312     4.160        3-1       4.29 /_  150.0    1.0312
1 ...... 1       2.4566 /_   -0.3    1.0228     4.160        1-2     4.2651 /_   29.9    1.0253
   -     2       2.4759 /_ -120.0    1.0309     4.160        2-3      4.277 /_  -90.2    1.0281
   -     3       2.4618 /_  119.9     1.025     4.160        3-1     4.2652 /_  149.8    1.0253
2 ...... 2       2.4754 /_ -120.0    1.0306     4.160
3 ...... 3       2.4579 /_  119.9    1.0234     4.160
7 ...... 1       2.4415 /_   -0.6    1.0165     4.160        1-2     4.2473 /_   29.9     1.021
   -     2       2.4754 /_ -120.1    1.0307     4.160        2-3     4.2683 /_  -90.2     1.026
   -     3       2.4528 /_  119.9    1.0212     4.160        3-1      4.249 /_  149.6    1.0214
4 ...... 3       2.4566 /_  119.9    1.0228     4.160
5 ...... 3       2.4547 /_  119.9    1.0221     4.160
6 ...... 3       2.4531 /_  119.9    1.0214     4.160
8 ...... 1       2.4317 /_   -0.7    1.0125     4.160        1-2     4.2357 /_   29.9    1.0182
   -     2       2.4749 /_ -120.1    1.0305     4.160        2-3     4.2624 /_  -90.3    1.0246
   -     3       2.4468 /_  119.9    1.0187     4.160        3-1     4.2383 /_  149.5    1.0188
12 ..... 2       2.4742 /_ -120.1    1.0302     4.160
9 ...... 1       2.4282 /_   -0.8     1.011     4.160
13 ..... 1       2.4196 /_   -0.9    1.0074     4.160        1-2     4.2202 /_   29.8    1.0145
   -     2       2.4733 /_ -120.1    1.0298     4.160        2-3     4.2537 /_  -90.4    1.0225
   -     3       2.4378 /_  119.8     1.015     4.160        3-1      4.223 /_  149.3    1.0151
9R ..... 1        2.413 /_   -0.8    1.0047     4.160
14 ..... 1        2.409 /_   -0.8     1.003     4.160
34 ..... 3       2.4354 /_  119.8     1.014     4.160
18 ..... 1       2.3979 /_   -1.4   0.99838     4.160        1-2     4.1893 /_   29.6     1.007
   -     2       2.4634 /_ -120.4    1.0256     4.160        2-3     4.2258 /_  -90.6    1.0158
   -     3         2.42 /_  119.8    1.0076     4.160        3-1      4.196 /_  149.1    1.0087
11 ..... 1       2.4074 /_   -0.8    1.0023     4.160
10 ..... 1       2.4082 /_   -0.8    1.0027     4.160
15 ..... 3       2.4345 /_  119.8    1.0136     4.160
16 ..... 3       2.4322 /_  119.8    1.0127     4.160
17 ..... 3       2.4334 /_  119.8    1.0132     4.160
19 ..... 1       2.3947 /_   -1.4   0.99706     4.160
21 ..... 1       2.3966 /_   -1.4   0.99783     4.160        1-2     4.1871 /_   29.6    1.0065
   -     2       2.4635 /_ -120.4    1.0257     4.160        2-3      4.224 /_  -90.6    1.0154
   -     3       2.4172 /_  119.7    1.0064     4.160        3-1      4.193 /_  149.0    1.0079
20 ..... 1       2.3927 /_   -1.4    0.9962     4.160
22 ..... 2       2.4601 /_ -120.4    1.0243     4.160
23 ..... 1       2.3955 /_   -1.5   0.99741     4.160        1-2     4.1855 /_   29.6    1.0061
   -     2       2.4644 /_ -120.4    1.0261     4.160        2-3     4.2231 /_  -90.7    1.0152
   -     3       2.4144 /_  119.7    1.0053     4.160        3-1     4.1906 /_  149.0    1.0073
24 ..... 3        2.411 /_  119.7    1.0038     4.160
25 ..... 1       2.3939 /_   -1.5   0.99674     4.160        1-2     4.1837 /_   29.6    1.0057
   -     2       2.4655 /_ -120.4    1.0265     4.160        2-3     4.2224 /_  -90.7     1.015
   -     3       2.4123 /_  119.7    1.0044     4.160        3-1     4.1885 /_  149.0    1.0068
25R .... 1       2.4239 /_   -1.5    1.0092     4.160
   -     3       2.4123 /_  119.7    1.0044     4.160        3-1     4.2145 /_  149.2    1.0131
26 ..... 1       2.4233 /_   -1.6    1.0089     4.160
   -     3       2.4111 /_  119.7    1.0039     4.160        3-1     4.2133 /_  149.2    1.0128
28 ..... 1       2.3931 /_   -1.6   0.99637     4.160        1-2     4.1828 /_   29.5    1.0055
   -     2       2.4661 /_ -120.4    1.0268     4.160        2-3     4.2221 /_  -90.7    1.0149
   -     3       2.4115 /_  119.7    1.0041     4.160        3-1     4.1876 /_  149.0    1.0066
27 ..... 1       2.4224 /_   -1.6    1.0086     4.160
   -     3       2.4111 /_  119.7    1.0039     4.160        3-1      4.213 /_  149.2    1.0128
31 ..... 3       2.4097 /_  119.7    1.0033     4.160
33 ..... 1       2.4192 /_   -1.6    1.0073     4.160
29 ..... 1       2.3927 /_   -1.6   0.99621     4.160        1-2     4.1822 /_   29.5    1.0053
   -     2       2.4664 /_ -120.4    1.0269     4.160        2-3     4.2218 /_  -90.7    1.0149
   -     3       2.4104 /_  119.7    1.0036     4.160        3-1     4.1866 /_  149.0    1.0064
30 ..... 1       2.3933 /_   -1.6   0.99647     4.160        1-2     4.1823 /_   29.5    1.0054
   -     2       2.4663 /_ -120.3    1.0269     4.160        2-3     4.2215 /_  -90.7    1.0148
   -     3       2.4093 /_  119.7    1.0031     4.160        3-1     4.1859 /_  149.0    1.0062
250 .... 1       2.3933 /_   -1.6   0.99647     4.160        1-2     4.1823 /_   29.5    1.0054
   -     2       2.4663 /_ -120.3    1.0269     4.160        2-3     4.2215 /_  -90.7    1.0148
   -     3       2.4093 /_  119.7    1.0031     4.160        3-1     4.1859 /_  149.0    1.0062
32 ..... 3       2.4088 /_  119.7    1.0029     4.160
35 ..... 1       2.3912 /_   -1.5   0.99561     4.160        1-2     4.1783 /_   29.5    1.0044
   -     2       2.4573 /_ -120.5    1.0231     4.160        2-3     4.2178 /_  -90.7    1.0139
   -     3       2.4174 /_  119.7    1.0065     4.160        3-1     4.1885 /_  148.9    1.0068
36 ..... 1        2.389 /_   -1.5   0.99467     4.160        1-2      4.176 /_   29.5    1.0038
   -     2       2.4561 /_ -120.5    1.0226     4.160
40 ..... 1       2.3876 /_   -1.5   0.99409     4.160        1-2      4.173 /_   29.5    1.0031
   -     2       2.4545 /_ -120.5     1.022     4.160        2-3     4.2132 /_  -90.7    1.0128
   -     3       2.4149 /_  119.7    1.0055     4.160        3-1     4.1829 /_  148.9    1.0055
37 ..... 1       2.3871 /_   -1.5   0.99389     4.160
38 ..... 2       2.4546 /_ -120.5     1.022     4.160
39 ..... 2       2.4536 /_ -120.5    1.0216     4.160
41 ..... 3       2.4139 /_  119.6     1.005     4.160
42 ..... 1       2.3838 /_   -1.5    0.9925     4.160        1-2     4.1677 /_   29.4    1.0019
   -     2       2.4518 /_ -120.6    1.0208     4.160        2-3     4.2088 /_  -90.7    1.0117
   -     3       2.4128 /_  119.6    1.0046     4.160        3-1     4.1777 /_  148.9    1.0043
43 ..... 2       2.4486 /_ -120.6    1.0195     4.160
44 ..... 1       2.3811 /_   -1.6   0.99141     4.160        1-2      4.164 /_   29.4     1.001
   -     2       2.4501 /_ -120.6    1.0201     4.160        2-3     4.2057 /_  -90.8     1.011
   -     3       2.4108 /_  119.6    1.0038     4.160        3-1     4.1737 /_  148.8    1.0033
45 ..... 1       2.3799 /_   -1.6   0.99088     4.160
47 ..... 1       2.3787 /_   -1.6   0.99037     4.160        1-2     4.1598 /_   29.4   0.99995
   -     2       2.4475 /_ -120.6    1.0191     4.160        2-3     4.2017 /_  -90.8      1.01
   -     3       2.4084 /_  119.5    1.0028     4.160        3-1     4.1689 /_  148.8    1.0021
46 ..... 1       2.3789 /_   -1.6   0.99048     4.160
48 ..... 1        2.378 /_   -1.6    0.9901     4.160        1-2     4.1586 /_   29.4   0.99967
   -     2       2.4468 /_ -120.6    1.0188     4.160        2-3     4.2007 /_  -90.8    1.0098
   -     3       2.4079 /_  119.5    1.0025     4.160        3-1     4.1678 /_  148.8    1.0019
49 ..... 1        2.378 /_   -1.6    0.9901     4.160        1-2     4.1581 /_   29.4   0.99954
   -     2       2.4462 /_ -120.6    1.0185     4.160        2-3     4.2002 /_  -90.8    1.0097
   -     3       2.4076 /_  119.5    1.0024     4.160        3-1     4.1673 /_  148.8    1.0017
50 ..... 1        2.378 /_   -1.6   0.99008     4.160        1-2     4.1577 /_   29.4   0.99945
   -     2       2.4463 /_ -120.6    1.0185     4.160        2-3        4.2 /_  -90.8    1.0096
   -     3       2.4068 /_  119.5    1.0021     4.160        3-1     4.1665 /_  148.8    1.0016
51 ..... 1       2.3776 /_   -1.6   0.98992     4.160        1-2     4.1574 /_   29.4   0.99937
   -     2       2.4465 /_ -120.6    1.0186     4.160        2-3        4.2 /_  -90.8    1.0096
   -     3       2.4068 /_  119.5    1.0021     4.160        3-1     4.1664 /_  148.8    1.0015
151 .... 1       2.3776 /_   -1.6   0.98992     4.160        1-2     4.1574 /_   29.4   0.99937
   -     2       2.4465 /_ -120.6    1.0186     4.160        2-3        4.2 /_  -90.8    1.0096
   -     3       2.4068 /_  119.5    1.0021     4.160        3-1     4.1664 /_  148.8    1.0015
52 ..... 1       2.4144 /_   -1.0    1.0052     4.160        1-2     4.2153 /_   29.9    1.0133
   -     2       2.4751 /_ -120.1    1.0305     4.160        2-3      4.253 /_  -90.4    1.0224
   -     3       2.4361 /_  119.9    1.0143     4.160        3-1     4.2197 /_  149.3    1.0143
53 ..... 1       2.4124 /_   -1.0    1.0044     4.160        1-2     4.2133 /_   29.9    1.0128
   -     2       2.4756 /_ -120.1    1.0307     4.160        2-3     4.2526 /_  -90.4    1.0223
   -     3       2.4353 /_  119.9     1.014     4.160        3-1     4.2182 /_  149.3     1.014
54 ..... 1       2.4116 /_   -1.0    1.0041     4.160        1-2     4.2124 /_   29.9    1.0126
   -     2       2.4757 /_ -120.1    1.0308     4.160        2-3     4.2523 /_  -90.3    1.0222
   -     3       2.4349 /_  119.9    1.0138     4.160        3-1     4.2174 /_  149.3    1.0138
55 ..... 1       2.4111 /_   -1.0    1.0039     4.160        1-2     4.2119 /_   29.9    1.0125
   -     2       2.4755 /_ -120.1    1.0307     4.160        2-3     4.2521 /_  -90.3    1.0221
   -     3        2.435 /_  119.9    1.0138     4.160        3-1     4.2172 /_  149.3    1.0137
57 ..... 1       2.4096 /_   -1.0    1.0033     4.160        1-2     4.2097 /_   29.9    1.0119
   -     2       2.4761 /_ -120.0    1.0309     4.160        2-3      4.252 /_  -90.3    1.0221
   -     3       2.4334 /_  120.0    1.0131     4.160        3-1      4.215 /_  149.3    1.0132
56 ..... 1        2.411 /_   -1.0    1.0038     4.160        1-2     4.2118 /_   29.9    1.0125
   -     2       2.4751 /_ -120.1    1.0305     4.160        2-3     4.2517 /_  -90.3    1.0221
   -     3       2.4352 /_  119.9    1.0139     4.160        3-1     4.2172 /_  149.3    1.0137
58 ..... 2       2.4745 /_ -120.0    1.0303     4.160
60 ..... 1       2.4056 /_   -1.1    1.0016     4.160        1-2     4.2045 /_   30.1    1.0107
   -     2       2.4792 /_ -119.8    1.0323     4.160        2-3     4.2529 /_  -90.2    1.0223
   -     3       2.4288 /_  120.0    1.0113     4.160        3-1     4.2097 /_  149.3     1.012
59 ..... 2       2.4738 /_ -120.0      1.03     4.160
61 ..... 1       2.4056 /_   -1.1    1.0016     4.160        1-2     4.2045 /_   30.1    1.0107
   -     2       2.4792 /_ -119.8    1.0323     4.160        2-3     4.2529 /_  -90.2    1.0223
   -     3       2.4288 /_  120.0    1.0113     4.160        3-1     4.2097 /_  149.3     1.012
62 ..... 1       2.4037 /_   -1.1    1.0008     4.160        1-2     4.2002 /_   30.1    1.0097
   -     2       2.4765 /_ -119.8    1.0311     4.160        2-3     4.2471 /_  -90.3    1.0209
   -     3       2.4239 /_  120.0    1.0092     4.160        3-1     4.2034 /_  149.4    1.0104
63 ..... 1       2.4023 /_   -1.0    1.0002     4.160        1-2     4.1971 /_   30.1    1.0089
   -     2       2.4744 /_ -119.8    1.0302     4.160        2-3     4.2436 /_  -90.3    1.0201
   -     3       2.4214 /_  120.0    1.0082     4.160        3-1     4.1997 /_  149.4    1.0095
64 ..... 1       2.4015 /_   -1.0   0.99987     4.160        1-2     4.1922 /_   30.1    1.0077
   -     2       2.4699 /_ -119.8    1.0283     4.160        2-3     4.2365 /_  -90.3    1.0184
   -     3       2.4163 /_  120.0     1.006     4.160        3-1     4.1933 /_  149.4     1.008
65 ..... 1       2.3998 /_   -1.0   0.99916     4.160        1-2     4.1889 /_   30.1     1.007
   -     2        2.469 /_ -119.7     1.028     4.160        2-3     4.2306 /_  -90.3     1.017
   -     3       2.4091 /_  120.0     1.003     4.160        3-1     4.1857 /_  149.4    1.0062
66 ..... 1       2.4003 /_   -1.1    0.9994     4.160        1-2     4.1888 /_   30.1    1.0069
   -     2       2.4696 /_ -119.7    1.0282     4.160        2-3     4.2286 /_  -90.3    1.0165
   -     3       2.4055 /_  120.0    1.0015     4.160        3-1     4.1835 /_  149.4    1.0056
67 ..... 1       2.5101 /_   -1.0    1.0451     4.160        1-2      4.309 /_   29.5    1.0358
   -     2       2.4986 /_ -119.8    1.0403     4.160        2-3     4.3365 /_  -89.8    1.0424
   -     3       2.5061 /_  120.1    1.0434     4.160        3-1       4.37 /_  149.6    1.0505
68 ..... 1       2.5065 /_   -1.1    1.0436     4.160
72 ..... 1       2.5111 /_   -1.1    1.0455     4.160        1-2     4.3082 /_   29.4    1.0356
   -     2       2.4965 /_ -119.8    1.0394     4.160        2-3     4.3347 /_  -89.9     1.042
   -     3       2.5056 /_  120.0    1.0432     4.160        3-1       4.37 /_  149.5    1.0505
97 ..... 1       2.5077 /_   -1.1    1.0441     4.160        1-2     4.3053 /_   29.5    1.0349
   -     2       2.4974 /_ -119.8    1.0398     4.160        2-3     4.3339 /_  -89.8    1.0418
   -     3       2.5043 /_  120.1    1.0427     4.160        3-1     4.3671 /_  149.5    1.0498
69 ..... 1       2.5023 /_   -1.1    1.0419     4.160
70 ..... 1       2.4994 /_   -1.1    1.0406     4.160
71 ..... 1       2.4977 /_   -1.1    1.0399     4.160
73 ..... 3       2.5005 /_  120.0    1.0411     4.160
76 ..... 1        2.511 /_   -1.2    1.0455     4.160        1-2     4.3078 /_   29.3    1.0355
   -     2       2.4953 /_ -119.9    1.0389     4.160        2-3      4.334 /_  -89.9    1.0418
   -     3       2.5072 /_  120.0    1.0439     4.160        3-1     4.3714 /_  149.4    1.0508
74 ..... 3       2.4961 /_  120.0    1.0393     4.160
75 ..... 3       2.4936 /_  119.9    1.0382     4.160
77 ..... 1       2.5138 /_   -1.3    1.0466     4.160        1-2     4.3129 /_   29.2    1.0368
   -     2       2.4981 /_ -120.0    1.0401     4.160        2-3     4.3382 /_  -90.0    1.0428
   -     3       2.5094 /_  119.9    1.0448     4.160        3-1     4.3755 /_  149.3    1.0518
86 ..... 1       2.5089 /_   -1.2    1.0446     4.160        1-2     4.3053 /_   29.2    1.0349
   -     2        2.491 /_ -120.1    1.0372     4.160        2-3     4.3305 /_  -90.0     1.041
   -     3       2.5106 /_  119.9    1.0453     4.160        3-1     4.3726 /_  149.3    1.0511
78 ..... 1       2.5145 /_   -1.3    1.0469     4.160        1-2     4.3143 /_   29.2    1.0371
   -     2       2.4991 /_ -120.0    1.0405     4.160        2-3     4.3395 /_  -90.0    1.0432
   -     3       2.5098 /_  119.9     1.045     4.160        3-1     4.3765 /_  149.3     1.052
79 ..... 1       2.5138 /_   -1.3    1.0466     4.160        1-2     4.3137 /_   29.2     1.037
   -     2       2.4994 /_ -120.0    1.0406     4.160        2-3     4.3395 /_  -90.0    1.0431
   -     3       2.5097 /_  119.9    1.0449     4.160        3-1     4.3763 /_  149.3     1.052
80 ..... 1       2.5196 /_   -1.3    1.0491     4.160        1-2     4.3222 /_   29.2     1.039
   -     2       2.5031 /_ -120.1    1.0422     4.160        2-3     4.3459 /_  -90.1    1.0447
   -     3       2.5119 /_  119.8    1.0459     4.160        3-1     4.3818 /_  149.3    1.0533
81 ..... 1       2.5215 /_   -1.4    1.0499     4.160        1-2     4.3253 /_   29.1    1.0397
   -     2       2.5052 /_ -120.1     1.043     4.160        2-3     4.3487 /_  -90.1    1.0454
   -     3       2.5125 /_  119.7    1.0461     4.160        3-1     4.3837 /_  149.2    1.0538
82 ..... 1       2.5236 /_   -1.4    1.0507     4.160        1-2     4.3296 /_   29.1    1.0408
   -     2       2.5082 /_ -120.1    1.0443     4.160        2-3      4.353 /_  -90.2    1.0464
   -     3       2.5144 /_  119.7    1.0469     4.160        3-1     4.3873 /_  149.2    1.0546
84 ..... 3       2.5063 /_  119.7    1.0435     4.160
83 ..... 1       2.5265 /_   -1.4    1.0519     4.160        1-2     4.3345 /_   29.1    1.0419
   -     2       2.5109 /_ -120.2    1.0454     4.160        2-3     4.3574 /_  -90.2    1.0475
   -     3       2.5164 /_  119.7    1.0477     4.160        3-1     4.3911 /_  149.2    1.0555
85 ..... 3       2.5035 /_  119.7    1.0423     4.160
87 ..... 1       2.5077 /_   -1.3    1.0441     4.160        1-2     4.3042 /_   29.1    1.0347
   -     2       2.4891 /_ -120.2    1.0364     4.160        2-3     4.3285 /_  -90.0    1.0405
   -     3        2.512 /_  119.9    1.0459     4.160        3-1     4.3727 /_  149.3    1.0511
88 ..... 1       2.5076 /_   -1.3    1.0441     4.160
89 ..... 1       2.5067 /_   -1.2    1.0437     4.160        1-2     4.3039 /_   29.1    1.0346
   -     2       2.4885 /_ -120.2    1.0361     4.160        2-3     4.3281 /_  -90.0    1.0404
   -     3       2.5129 /_  119.9    1.0463     4.160        3-1     4.3723 /_  149.3     1.051
90 ..... 2       2.4883 /_ -120.3     1.036     4.160
91 ..... 1       2.5062 /_   -1.2    1.0435     4.160        1-2     4.3031 /_   29.1    1.0344
   -     2       2.4877 /_ -120.3    1.0358     4.160        2-3     4.3279 /_  -90.0    1.0404
   -     3       2.5135 /_  119.9    1.0465     4.160        3-1      4.372 /_  149.3     1.051
92 ..... 3       2.5133 /_  119.8    1.0464     4.160
93 ..... 1       2.5055 /_   -1.3    1.0432     4.160        1-2     4.3024 /_   29.1    1.0342
   -     2       2.4873 /_ -120.3    1.0356     4.160        2-3     4.3273 /_  -90.0    1.0402
   -     3       2.5137 /_  119.9    1.0466     4.160        3-1     4.3718 /_  149.3    1.0509
94 ..... 1       2.5038 /_   -1.3    1.0425     4.160
95 ..... 1       2.5054 /_   -1.2    1.0431     4.160        1-2     4.3021 /_   29.1    1.0342
   -     2       2.4864 /_ -120.3    1.0353     4.160        2-3     4.3265 /_  -90.0      1.04
   -     3       2.5141 /_  119.9    1.0468     4.160        3-1     4.3718 /_  149.3    1.0509
96 ..... 2       2.4858 /_ -120.3     1.035     4.160
98 ..... 1       2.5073 /_   -1.1    1.0439     4.160        1-2     4.3043 /_   29.5    1.0347
   -     2       2.4968 /_ -119.8    1.0396     4.160        2-3      4.333 /_  -89.8    1.0416
   -     3       2.5038 /_  120.1    1.0425     4.160        3-1     4.3662 /_  149.5    1.0496
99 ..... 1        2.508 /_   -1.1    1.0442     4.160        1-2     4.3037 /_   29.5    1.0345
   -     2       2.4948 /_ -119.8    1.0387     4.160        2-3     4.3312 /_  -89.8    1.0412
   -     3        2.503 /_  120.1    1.0421     4.160        3-1      4.365 /_  149.5    1.0493
100 .... 1       2.5085 /_   -1.1    1.0444     4.160        1-2     4.3036 /_   29.5    1.0345
   -     2       2.4947 /_ -119.8    1.0387     4.160        2-3     4.3309 /_  -89.8    1.0411
   -     3        2.502 /_  120.1    1.0417     4.160        3-1     4.3643 /_  149.5    1.0491
450 .... 1       2.5085 /_   -1.1    1.0444     4.160        1-2     4.3036 /_   29.5    1.0345
   -     2       2.4947 /_ -119.8    1.0387     4.160        2-3     4.3309 /_  -89.8    1.0411
   -     3        2.502 /_  120.1    1.0417     4.160        3-1     4.3643 /_  149.5    1.0491
197 .... 1       2.5077 /_   -1.1    1.0441     4.160        1-2     4.3053 /_   29.5    1.0349
   -     2       2.4974 /_ -119.8    1.0398     4.160        2-3     4.3339 /_  -89.8    1.0418
   -     3       2.5043 /_  120.1    1.0427     4.160        3-1     4.3671 /_  149.5    1.0498
101 .... 1       2.5058 /_   -1.1    1.0433     4.160        1-2     4.3025 /_   29.5    1.0342
   -     2       2.4968 /_ -119.8    1.0395     4.160        2-3     4.3321 /_  -89.8    1.0414
   -     3       2.5031 /_  120.1    1.0422     4.160        3-1     4.3649 /_  149.5    1.0493
102 .... 3       2.4996 /_  120.1    1.0407     4.160
105 .... 1       2.5026 /_   -1.2     1.042     4.160        1-2     4.2995 /_   29.5    1.0335
   -     2       2.4964 /_ -119.8    1.0394     4.160        2-3     4.3308 /_  -89.8    1.0411
   -     3       2.5037 /_  120.1    1.0424     4.160        3-1     4.3642 /_  149.5    1.0491
103 .... 3       2.4957 /_  120.1    1.0391     4.160
104 .... 3       2.4914 /_  120.0    1.0373     4.160
106 .... 2       2.4937 /_ -119.9    1.0383     4.160
108 .... 1       2.4991 /_   -1.2    1.0405     4.160        1-2     4.2966 /_   29.4    1.0328
   -     2       2.4979 /_ -119.8      1.04     4.160        2-3     4.3307 /_  -89.8     1.041
   -     3       2.5034 /_  120.2    1.0423     4.160        3-1     4.3631 /_  149.4    1.0488
107 .... 2       2.4901 /_ -119.9    1.0368     4.160
109 .... 1       2.4892 /_   -1.3    1.0364     4.160
300 .... 1       2.4991 /_   -1.2    1.0405     4.160        1-2     4.2966 /_   29.4    1.0328
   -     2       2.4979 /_ -119.8      1.04     4.160        2-3     4.3307 /_  -89.8     1.041
   -     3       2.5034 /_  120.2    1.0423     4.160        3-1     4.3631 /_  149.4    1.0488
110 .... 1       2.4845 /_   -1.4    1.0344     4.160
111 .... 1       2.4827 /_   -1.4    1.0337     4.160
112 .... 1       2.4829 /_   -1.4    1.0338     4.160
113 .... 1       2.4778 /_   -1.4    1.0317     4.160
114 .... 1       2.4768 /_   -1.4    1.0313     4.160
135 .... 1       2.3979 /_   -1.4   0.99838     4.160        1-2     4.1893 /_   29.6     1.007
   -     2       2.4634 /_ -120.4    1.0256     4.160        2-3     4.2258 /_  -90.6    1.0158
   -     3         2.42 /_  119.8    1.0076     4.160        3-1      4.196 /_  149.1    1.0087
152 .... 1       2.4196 /_   -0.9    1.0074     4.160        1-2     4.2202 /_   29.8    1.0145
   -     2       2.4733 /_ -120.1    1.0298     4.160        2-3     4.2537 /_  -90.4    1.0225
   -     3       2.4378 /_  119.8     1.015     4.160        3-1      4.223 /_  149.3    1.0151
160R ... 1       2.5108 /_   -1.1    1.0454     4.160        1-2     4.3083 /_   29.4    1.0356
   -     2       2.4947 /_ -119.8    1.0387     4.160        2-3     4.3321 /_  -89.8    1.0414
   -     3       2.5047 /_  120.0    1.0429     4.160        3-1     4.3675 /_  149.5    1.0499
160 .... 1       2.4056 /_   -1.1    1.0016     4.160        1-2     4.2045 /_   30.1    1.0107
   -     2       2.4792 /_ -119.8    1.0323     4.160        2-3     4.2529 /_  -90.2    1.0223
   -     3       2.4288 /_  120.0    1.0113     4.160        3-1     4.2097 /_  149.3     1.012
61S .... 1       2.4056 /_   -1.1    1.0016     4.160        1-2     4.2045 /_   30.1    1.0107
   -     2       2.4792 /_ -119.8    1.0323     4.160        2-3     4.2529 /_  -90.2    1.0223
   -     3       2.4288 /_  120.0    1.0113     4.160        3-1     4.2097 /_  149.3     1.012
300_OPEN 1       2.3776 /_   -1.6   0.98992     4.160        1-2     4.1574 /_   29.4   0.99937
   -     2       2.4465 /_ -120.6    1.0186     4.160        2-3        4.2 /_  -90.8    1.0096
   -     3       2.4068 /_  119.5    1.0021     4.160        3-1     4.1664 /_  148.8    1.0015
94_OPEN  1       2.4116 /_   -1.0    1.0041     4.160
610 .... 1      0.27924 /_   -0.3    1.0076     0.480        1-2    0.48514 /_   30.1    1.0107
   -     2      0.28213 /_ -119.9    1.0181     0.480        2-3    0.49072 /_  -90.2    1.0223
   -     3      0.28248 /_  119.4    1.0193     0.480        3-1    0.48574 /_  149.3     1.012
